   Input file: ex2
  Output file: ex2.out
Database file: phreeqc.dat

------------------
Reading data base.
------------------

	SOLUTION_MASTER_SPECIES
	SOLUTION_SPECIES
	PHASES
	EXCHANGE_MASTER_SPECIES
	EXCHANGE_SPECIES
	SURFACE_MASTER_SPECIES
	SURFACE_SPECIES
	RATES
	END
------------------------------------
Reading input data for simulation 1.
------------------------------------

	TITLE Example 2.--Temperature dependence of solubility
	                  of gypsum and anhydrite
	SOLUTION 1 Pure water
	        pH      7.0
	        temp    25.0                
	EQUILIBRIUM_PHASES 1
	        Gypsum          0.0     1.0
	        Anhydrite       0.0     1.0
	REACTION_TEMPERATURE 1
	        25.0 75.0 in 51 steps
	SELECTED_OUTPUT
	        file   ex2.sel
	        temperature
	        si     anhydrite  gypsum
	USER_GRAPH 1 Example 2
	        -headings Temperature Gypsum Anhydrite
	        -chart_title "Gypsum-Anhydrite Stability"
	        -axis_scale x_axis 25 75 5 0
	        -axis_scale y_axis auto 0.05 0.1
	        -axis_titles "Temperature, in degrees celsius" "Saturation index"
	        -initial_solutions false
	  -start
	  10 graph_x TC
	  20 graph_y SI("Gypsum") SI("Anhydrite")
	  -end
	END
-----
TITLE
-----

 Example 2.--Temperature dependence of solubility
                  of gypsum and anhydrite

-------------------------------------------
Beginning of initial solution calculations.
-------------------------------------------

Initial solution 1.	Pure water

-----------------------------Solution composition------------------------------

	Elements           Molality       Moles

	Pure water     

----------------------------Description of solution----------------------------

                                       pH  =   7.000    
                                       pe  =   4.000    
      Specific Conductance (µS/cm,  25°C)  = 0
                          Density (g/cm³)  =   0.99704
                               Volume (L)  =   1.00297
                        Activity of water  =   1.000
                 Ionic strength (mol/kgw)  =   1.007e-07
                       Mass of water (kg)  =   1.000e+00
                 Total alkalinity (eq/kg)  =   1.217e-09
                         Temperature (°C)  =  25.00
                  Electrical balance (eq)  =  -1.217e-09
 Percent error, 100*(Cat-|An|)/(Cat+|An|)  =  -0.60
                               Iterations  =   0
                                  Total H  = 1.110124e+02
                                  Total O  = 5.550622e+01

----------------------------Distribution of species----------------------------

                                               Log       Log       Log    mole V
   Species          Molality    Activity  Molality  Activity     Gamma   cm³/mol

   OH-             1.013e-07   1.012e-07    -6.995    -6.995    -0.000     -4.14
   H+              1.001e-07   1.000e-07    -7.000    -7.000    -0.000      0.00
   H2O             5.551e+01   1.000e+00     1.744     0.000     0.000     18.07
H(0)          1.416e-25
   H2              7.079e-26   7.079e-26   -25.150   -25.150     0.000     28.61
O(0)          0.000e+00
   O2              0.000e+00   0.000e+00   -42.080   -42.080     0.000     30.40

------------------------------Saturation indices-------------------------------

  Phase               SI** log IAP   log K(298 K,   1 atm)

  H2(g)           -22.05    -25.15   -3.10  H2
  H2O(g)           -1.50      0.00    1.50  H2O
  O2(g)           -39.19    -42.08   -2.89  O2

**For a gas, SI = log10(fugacity). Fugacity = pressure * phi / 1 atm.
  For ideal gases, phi = 1.

-----------------------------------------
Beginning of batch-reaction calculations.
-----------------------------------------

Reaction step 1.

Using solution 1.	Pure water
Using pure phase assemblage 1.	
Using temperature 1.	

-------------------------------Phase assemblage--------------------------------

                                                      Moles in assemblage
Phase               SI  log IAP  log K(T, P)   Initial       Final       Delta

Anhydrite        -0.30    -4.58     -4.28    1.000e+00           0  -1.000e+00
Gypsum            0.00    -4.58     -4.58    1.000e+00   1.985e+00   9.855e-01

-----------------------------Solution composition------------------------------

	Elements           Molality       Moles

	Ca                1.505e-02   1.451e-02
	S                 1.505e-02   1.451e-02

----------------------------Description of solution----------------------------

                                       pH  =   7.066      Charge balance
                                       pe  =  10.745      Adjusted to redox equilibrium
      Specific Conductance (µS/cm,  25°C)  = 2259
                          Density (g/cm³)  =   0.99908
                               Volume (L)  =   0.96736
                        Activity of water  =   1.000
                 Ionic strength (mol/kgw)  =   4.174e-02
                       Mass of water (kg)  =   9.645e-01
                 Total alkalinity (eq/kg)  =   1.261e-09
                         Temperature (°C)  =  25.00
                  Electrical balance (eq)  =  -1.217e-09
 Percent error, 100*(Cat-|An|)/(Cat+|An|)  =  -0.00
                               Iterations  =  17
                                  Total H  = 1.070705e+02
                                  Total O  = 5.359328e+01

----------------------------Distribution of species----------------------------

                                               Log       Log       Log    mole V
   Species          Molality    Activity  Molality  Activity     Gamma   cm³/mol

   OH-             1.431e-07   1.178e-07    -6.845    -6.929    -0.084     -3.90
   H+              9.975e-08   8.589e-08    -7.001    -7.066    -0.065      0.00
   H2O             5.551e+01   9.996e-01     1.744    -0.000     0.000     18.07
Ca            1.505e-02
   Ca+2            1.043e-02   5.167e-03    -1.982    -2.287    -0.305    -17.66
   CaSO4           4.611e-03   4.656e-03    -2.336    -2.332     0.004      7.50
   CaOH+           1.200e-08   9.980e-09    -7.921    -8.001    -0.080     (0)  
   CaHSO4+         3.161e-09   2.629e-09    -8.500    -8.580    -0.080     (0)  
H(0)          3.354e-39
   H2              1.677e-39   1.693e-39   -38.776   -38.771     0.004     28.61
O(0)          2.879e-15
   O2              1.439e-15   1.453e-15   -14.842   -14.838     0.004     30.40
S(-2)         0.000e+00
   HS-             0.000e+00   0.000e+00  -118.112  -118.196    -0.084     20.77
   H2S             0.000e+00   0.000e+00  -118.325  -118.320     0.004     37.16
   S-2             0.000e+00   0.000e+00  -123.736  -124.048    -0.312     (0)  
S(6)          1.505e-02
   SO4-2           1.043e-02   5.067e-03    -1.982    -2.295    -0.314     15.16
   CaSO4           4.611e-03   4.656e-03    -2.336    -2.332     0.004      7.50
   HSO4-           5.088e-08   4.231e-08    -7.293    -7.374    -0.080     40.44
   CaHSO4+         3.161e-09   2.629e-09    -8.500    -8.580    -0.080     (0)  

------------------------------Saturation indices-------------------------------

  Phase               SI** log IAP   log K(298 K,   1 atm)

  Anhydrite        -0.30     -4.58   -4.28  CaSO4
  Gypsum            0.00     -4.58   -4.58  CaSO4:2H2O
  H2(g)           -35.67    -38.77   -3.10  H2
  H2O(g)           -1.50     -0.00    1.50  H2O
  H2S(g)         -117.27   -125.26   -7.99  H2S
  O2(g)           -11.95    -14.84   -2.89  O2
  Sulfur          -87.58    -82.70    4.88  S

**For a gas, SI = log10(fugacity). Fugacity = pressure * phi / 1 atm.
  For ideal gases, phi = 1.

Reaction step 2.

Using solution 1.	Pure water
Using pure phase assemblage 1.	
Using temperature 1.	

-------------------------------Phase assemblage--------------------------------

                                                      Moles in assemblage
Phase               SI  log IAP  log K(T, P)   Initial       Final       Delta

Anhydrite        -0.29    -4.58     -4.29    1.000e+00           0  -1.000e+00
Gypsum            0.00    -4.58     -4.58    1.000e+00   1.985e+00   9.854e-01

-----------------------------Solution composition------------------------------

	Elements           Molality       Moles

	Ca                1.509e-02   1.456e-02
	S                 1.509e-02   1.456e-02

----------------------------Description of solution----------------------------

                                       pH  =   7.052      Charge balance
                                       pe  =  10.676      Adjusted to redox equilibrium
      Specific Conductance (µS/cm,  26°C)  = 2312
                          Density (g/cm³)  =   0.99882
                               Volume (L)  =   0.96762
                        Activity of water  =   1.000
                 Ionic strength (mol/kgw)  =   4.180e-02
                       Mass of water (kg)  =   9.645e-01
                 Total alkalinity (eq/kg)  =   1.261e-09
                         Temperature (°C)  =  26.00
                  Electrical balance (eq)  =  -1.217e-09
 Percent error, 100*(Cat-|An|)/(Cat+|An|)  =  -0.00
                               Iterations  =  17
                                  Total H  = 1.070707e+02
                                  Total O  = 5.359357e+01

----------------------------Distribution of species----------------------------

                                               Log       Log       Log    mole V
   Species          Molality    Activity  Molality  Activity     Gamma   cm³/mol

   OH-             1.496e-07   1.231e-07    -6.825    -6.910    -0.085     -3.86
   H+              1.030e-07   8.863e-08    -6.987    -7.052    -0.065      0.00
   H2O             5.551e+01   9.996e-01     1.744    -0.000     0.000     18.07
Ca            1.509e-02
   Ca+2            1.045e-02   5.167e-03    -1.981    -2.287    -0.306    -17.65
   CaSO4           4.645e-03   4.690e-03    -2.333    -2.329     0.004      7.54
   CaOH+           1.163e-08   9.671e-09    -7.934    -8.015    -0.080     (0)  
   CaHSO4+         3.335e-09   2.772e-09    -8.477    -8.557    -0.080     (0)  
H(0)          4.857e-39
   H2              2.429e-39   2.452e-39   -38.615   -38.610     0.004     28.60
O(0)          2.878e-15
   O2              1.439e-15   1.453e-15   -14.842   -14.838     0.004     30.48
S(-2)         0.000e+00
   HS-             0.000e+00   0.000e+00  -117.584  -117.669    -0.085     20.81
   H2S             0.000e+00   0.000e+00  -117.797  -117.793     0.004     37.17
   S-2             0.000e+00   0.000e+00  -123.192  -123.505    -0.313     (0)  
S(6)          1.509e-02
   SO4-2           1.045e-02   5.066e-03    -1.981    -2.295    -0.314     15.29
   CaSO4           4.645e-03   4.690e-03    -2.333    -2.329     0.004      7.54
   HSO4-           5.369e-08   4.462e-08    -7.270    -7.350    -0.080     40.50
   CaHSO4+         3.335e-09   2.772e-09    -8.477    -8.557    -0.080     (0)  

------------------------------Saturation indices-------------------------------

  Phase               SI** log IAP   log K(299 K,   1 atm)

  Anhydrite        -0.29     -4.58   -4.29  CaSO4
  Gypsum            0.00     -4.58   -4.58  CaSO4:2H2O
  H2(g)           -35.51    -38.61   -3.10  H2
  H2O(g)           -1.48     -0.00    1.48  H2O
  H2S(g)         -116.73   -124.72   -7.99  H2S
  O2(g)           -11.94    -14.84   -2.90  O2
  Sulfur          -87.20    -82.34    4.86  S

**For a gas, SI = log10(fugacity). Fugacity = pressure * phi / 1 atm.
  For ideal gases, phi = 1.

Reaction step 3.

Using solution 1.	Pure water
Using pure phase assemblage 1.	
Using temperature 1.	

-------------------------------Phase assemblage--------------------------------

                                                      Moles in assemblage
Phase               SI  log IAP  log K(T, P)   Initial       Final       Delta

Anhydrite        -0.28    -4.58     -4.30    1.000e+00           0  -1.000e+00
Gypsum            0.00    -4.58     -4.58    1.000e+00   1.985e+00   9.854e-01

-----------------------------Solution composition------------------------------

	Elements           Molality       Moles

	Ca                1.514e-02   1.460e-02
	S                 1.514e-02   1.460e-02

----------------------------Description of solution----------------------------

                                       pH  =   7.039      Charge balance
                                       pe  =  10.607      Adjusted to redox equilibrium
      Specific Conductance (µS/cm,  27°C)  = 2364
                          Density (g/cm³)  =   0.99855
                               Volume (L)  =   0.96788
                        Activity of water  =   1.000
                 Ionic strength (mol/kgw)  =   4.185e-02
                       Mass of water (kg)  =   9.645e-01
                 Total alkalinity (eq/kg)  =   1.261e-09
                         Temperature (°C)  =  27.00
                  Electrical balance (eq)  =  -1.217e-09
 Percent error, 100*(Cat-|An|)/(Cat+|An|)  =  -0.00
                               Iterations  =  20
                                  Total H  = 1.070708e+02
                                  Total O  = 5.359383e+01

----------------------------Distribution of species----------------------------

                                               Log       Log       Log    mole V
   Species          Molality    Activity  Molality  Activity     Gamma   cm³/mol

   OH-             1.564e-07   1.287e-07    -6.806    -6.891    -0.085     -3.83
   H+              1.063e-07   9.144e-08    -6.974    -7.039    -0.065      0.00
   H2O             5.551e+01   9.996e-01     1.744    -0.000     0.000     18.08
Ca            1.514e-02
   Ca+2            1.046e-02   5.166e-03    -1.980    -2.287    -0.306    -17.64
   CaSO4           4.677e-03   4.722e-03    -2.330    -2.326     0.004      7.57
   CaOH+           1.128e-08   9.371e-09    -7.948    -8.028    -0.080     (0)  
   CaHSO4+         3.517e-09   2.922e-09    -8.454    -8.534    -0.080     (0)  
H(0)          7.029e-39
   H2              3.515e-39   3.549e-39   -38.454   -38.450     0.004     28.60
O(0)          2.867e-15
   O2              1.434e-15   1.448e-15   -14.844   -14.839     0.004     30.55
S(-2)         0.000e+00
   HS-             0.000e+00   0.000e+00  -117.058  -117.143    -0.085     20.85
   H2S             0.000e+00   0.000e+00  -117.270  -117.265     0.004     37.17
   S-2             0.000e+00   0.000e+00  -122.649  -122.963    -0.313     (0)  
S(6)          1.514e-02
   SO4-2           1.046e-02   5.065e-03    -1.980    -2.295    -0.315     15.42
   CaSO4           4.677e-03   4.722e-03    -2.330    -2.326     0.004      7.57
   HSO4-           5.663e-08   4.705e-08    -7.247    -7.327    -0.080     40.57
   CaHSO4+         3.517e-09   2.922e-09    -8.454    -8.534    -0.080     (0)  

------------------------------Saturation indices-------------------------------

  Phase               SI** log IAP   log K(300 K,   1 atm)

  Anhydrite        -0.28     -4.58   -4.30  CaSO4
  Gypsum            0.00     -4.58   -4.58  CaSO4:2H2O
  H2(g)           -35.34    -38.45   -3.11  H2
  H2O(g)           -1.45     -0.00    1.45  H2O
  H2S(g)         -116.19   -124.18   -7.99  H2S
  O2(g)           -11.93    -14.84   -2.91  O2
  Sulfur          -86.81    -81.97    4.84  S

**For a gas, SI = log10(fugacity). Fugacity = pressure * phi / 1 atm.
  For ideal gases, phi = 1.

Reaction step 4.

Using solution 1.	Pure water
Using pure phase assemblage 1.	
Using temperature 1.	

-------------------------------Phase assemblage--------------------------------

                                                      Moles in assemblage
Phase               SI  log IAP  log K(T, P)   Initial       Final       Delta

Anhydrite        -0.27    -4.58     -4.31    1.000e+00           0  -1.000e+00
Gypsum            0.00    -4.58     -4.58    1.000e+00   1.985e+00   9.854e-01

-----------------------------Solution composition------------------------------

	Elements           Molality       Moles

	Ca                1.518e-02   1.464e-02
	S                 1.518e-02   1.464e-02

----------------------------Description of solution----------------------------

                                       pH  =   7.025      Charge balance
                                       pe  =  10.539      Adjusted to redox equilibrium
      Specific Conductance (µS/cm,  28°C)  = 2417
                          Density (g/cm³)  =   0.99828
                               Volume (L)  =   0.96816
                        Activity of water  =   1.000
                 Ionic strength (mol/kgw)  =   4.189e-02
                       Mass of water (kg)  =   9.645e-01
                 Total alkalinity (eq/kg)  =   1.261e-09
                         Temperature (°C)  =  28.00
                  Electrical balance (eq)  =  -1.217e-09
 Percent error, 100*(Cat-|An|)/(Cat+|An|)  =  -0.00
                               Iterations  =  21
                                  Total H  = 1.070710e+02
                                  Total O  = 5.359407e+01

----------------------------Distribution of species----------------------------

                                               Log       Log       Log    mole V
   Species          Molality    Activity  Molality  Activity     Gamma   cm³/mol

   OH-             1.634e-07   1.344e-07    -6.787    -6.872    -0.085     -3.79
   H+              1.096e-07   9.432e-08    -6.960    -7.025    -0.065      0.00
   H2O             5.551e+01   9.996e-01     1.744    -0.000     0.000     18.08
Ca            1.518e-02
   Ca+2            1.047e-02   5.164e-03    -1.980    -2.287    -0.307    -17.63
   CaSO4           4.708e-03   4.754e-03    -2.327    -2.323     0.004      7.61
   CaOH+           1.094e-08   9.082e-09    -7.961    -8.042    -0.081     (0)  
   CaHSO4+         3.708e-09   3.080e-09    -8.431    -8.511    -0.081     (0)  
H(0)          1.013e-38
   H2              5.063e-39   5.112e-39   -38.296   -38.291     0.004     28.60
O(0)          2.870e-15
   O2              1.435e-15   1.449e-15   -14.843   -14.839     0.004     30.63
S(-2)         0.000e+00
   HS-             0.000e+00   0.000e+00  -116.539  -116.624    -0.085     20.89
   H2S             0.000e+00   0.000e+00  -116.750  -116.745     0.004     37.18
   S-2             0.000e+00   0.000e+00  -122.114  -122.428    -0.314     (0)  
S(6)          1.518e-02
   SO4-2           1.047e-02   5.063e-03    -1.980    -2.296    -0.316     15.53
   CaSO4           4.708e-03   4.754e-03    -2.327    -2.323     0.004      7.61
   HSO4-           5.973e-08   4.961e-08    -7.224    -7.304    -0.081     40.63
   CaHSO4+         3.708e-09   3.080e-09    -8.431    -8.511    -0.081     (0)  

------------------------------Saturation indices-------------------------------

  Phase               SI** log IAP   log K(301 K,   1 atm)

  Anhydrite        -0.27     -4.58   -4.31  CaSO4
  Gypsum            0.00     -4.58   -4.58  CaSO4:2H2O
  H2(g)           -35.18    -38.29   -3.11  H2
  H2O(g)           -1.43     -0.00    1.43  H2O
  H2S(g)         -115.66   -123.65   -7.99  H2S
  O2(g)           -11.93    -14.84   -2.91  O2
  Sulfur          -86.43    -81.62    4.81  S

**For a gas, SI = log10(fugacity). Fugacity = pressure * phi / 1 atm.
  For ideal gases, phi = 1.

Reaction step 5.

Using solution 1.	Pure water
Using pure phase assemblage 1.	
Using temperature 1.	

-------------------------------Phase assemblage--------------------------------

                                                      Moles in assemblage
Phase               SI  log IAP  log K(T, P)   Initial       Final       Delta

Anhydrite        -0.26    -4.58     -4.32    1.000e+00           0  -1.000e+00
Gypsum            0.00    -4.58     -4.58    1.000e+00   1.985e+00   9.853e-01

-----------------------------Solution composition------------------------------

	Elements           Molality       Moles

	Ca                1.522e-02   1.468e-02
	S                 1.522e-02   1.468e-02

----------------------------Description of solution----------------------------

                                       pH  =   7.012      Charge balance
                                       pe  =  10.472      Adjusted to redox equilibrium
      Specific Conductance (µS/cm,  29°C)  = 2469
                          Density (g/cm³)  =   0.99799
                               Volume (L)  =   0.96844
                        Activity of water  =   1.000
                 Ionic strength (mol/kgw)  =   4.193e-02
                       Mass of water (kg)  =   9.645e-01
                 Total alkalinity (eq/kg)  =   1.261e-09
                         Temperature (°C)  =  29.00
                  Electrical balance (eq)  =  -1.217e-09
 Percent error, 100*(Cat-|An|)/(Cat+|An|)  =  -0.00
                               Iterations  =  17
                                  Total H  = 1.070712e+02
                                  Total O  = 5.359429e+01

----------------------------Distribution of species----------------------------

                                               Log       Log       Log    mole V
   Species          Molality    Activity  Molality  Activity     Gamma   cm³/mol

   OH-             1.706e-07   1.403e-07    -6.768    -6.853    -0.085     -3.76
   H+              1.131e-07   9.726e-08    -6.947    -7.012    -0.065      0.00
   H2O             5.551e+01   9.996e-01     1.744    -0.000     0.000     18.09
Ca            1.522e-02
   Ca+2            1.048e-02   5.161e-03    -1.980    -2.287    -0.308    -17.61
   CaSO4           4.738e-03   4.783e-03    -2.324    -2.320     0.004      7.64
   CaOH+           1.060e-08   8.803e-09    -7.975    -8.055    -0.081     (0)  
   CaHSO4+         3.908e-09   3.244e-09    -8.408    -8.489    -0.081     (0)  
H(0)          1.451e-38
   H2              7.256e-39   7.326e-39   -38.139   -38.135     0.004     28.60
O(0)          2.887e-15
   O2              1.444e-15   1.458e-15   -14.841   -14.836     0.004     30.70
S(-2)         0.000e+00
   HS-             0.000e+00   0.000e+00  -116.028  -116.113    -0.085     20.93
   H2S             0.000e+00   0.000e+00  -116.238  -116.233     0.004     37.18
   S-2             0.000e+00   0.000e+00  -121.587  -121.901    -0.315     (0)  
S(6)          1.522e-02
   SO4-2           1.048e-02   5.060e-03    -1.980    -2.296    -0.316     15.64
   CaSO4           4.738e-03   4.783e-03    -2.324    -2.320     0.004      7.64
   HSO4-           6.298e-08   5.228e-08    -7.201    -7.282    -0.081     40.69
   CaHSO4+         3.908e-09   3.244e-09    -8.408    -8.489    -0.081     (0)  

------------------------------Saturation indices-------------------------------

  Phase               SI** log IAP   log K(302 K,   1 atm)

  Anhydrite        -0.26     -4.58   -4.32  CaSO4
  Gypsum            0.00     -4.58   -4.58  CaSO4:2H2O
  H2(g)           -35.03    -38.14   -3.11  H2
  H2O(g)           -1.40     -0.00    1.40  H2O
  H2S(g)         -115.14   -123.12   -7.98  H2S
  O2(g)           -11.92    -14.84   -2.92  O2
  Sulfur          -86.06    -81.27    4.79  S

**For a gas, SI = log10(fugacity). Fugacity = pressure * phi / 1 atm.
  For ideal gases, phi = 1.

Reaction step 6.

Using solution 1.	Pure water
Using pure phase assemblage 1.	
Using temperature 1.	

-------------------------------Phase assemblage--------------------------------

                                                      Moles in assemblage
Phase               SI  log IAP  log K(T, P)   Initial       Final       Delta

Anhydrite        -0.25    -4.58     -4.33    1.000e+00           0  -1.000e+00
Gypsum            0.00    -4.58     -4.58    1.000e+00   1.985e+00   9.853e-01

-----------------------------Solution composition------------------------------

	Elements           Molality       Moles

	Ca                1.526e-02   1.471e-02
	S                 1.526e-02   1.471e-02

----------------------------Description of solution----------------------------

                                       pH  =   6.999      Charge balance
                                       pe  =  10.404      Adjusted to redox equilibrium
      Specific Conductance (µS/cm,  30°C)  = 2522
                          Density (g/cm³)  =   0.99770
                               Volume (L)  =   0.96873
                        Activity of water  =   1.000
                 Ionic strength (mol/kgw)  =   4.196e-02
                       Mass of water (kg)  =   9.645e-01
                 Total alkalinity (eq/kg)  =   1.261e-09
                         Temperature (°C)  =  30.00
                  Electrical balance (eq)  =  -1.217e-09
 Percent error, 100*(Cat-|An|)/(Cat+|An|)  =  -0.00
                               Iterations  =  17
                                  Total H  = 1.070713e+02
                                  Total O  = 5.359450e+01

----------------------------Distribution of species----------------------------

                                               Log       Log       Log    mole V
   Species          Molality    Activity  Molality  Activity     Gamma   cm³/mol

   OH-             1.781e-07   1.463e-07    -6.749    -6.835    -0.085     -3.73
   H+              1.166e-07   1.003e-07    -6.933    -6.999    -0.066      0.00
   H2O             5.551e+01   9.996e-01     1.744    -0.000     0.000     18.09
Ca            1.526e-02
   Ca+2            1.049e-02   5.158e-03    -1.979    -2.288    -0.308    -17.61
   CaSO4           4.766e-03   4.812e-03    -2.322    -2.318     0.004      7.68
   CaOH+           1.028e-08   8.533e-09    -7.988    -8.069    -0.081     (0)  
   CaHSO4+         4.117e-09   3.416e-09    -8.385    -8.466    -0.081     (0)  
H(0)          2.086e-38
   H2              1.043e-38   1.053e-38   -37.982   -37.977     0.004     28.60
O(0)          2.873e-15
   O2              1.436e-15   1.450e-15   -14.843   -14.839     0.004     30.77
S(-2)         0.000e+00
   HS-             0.000e+00   0.000e+00  -115.511  -115.596    -0.085     20.97
   H2S             0.000e+00   0.000e+00  -115.719  -115.715     0.004     37.18
   S-2             0.000e+00   0.000e+00  -121.054  -121.369    -0.315     (0)  
S(6)          1.526e-02
   SO4-2           1.049e-02   5.056e-03    -1.979    -2.296    -0.317     15.75
   CaSO4           4.766e-03   4.812e-03    -2.322    -2.318     0.004      7.68
   HSO4-           6.639e-08   5.509e-08    -7.178    -7.259    -0.081     40.74
   CaHSO4+         4.117e-09   3.416e-09    -8.385    -8.466    -0.081     (0)  

------------------------------Saturation indices-------------------------------

  Phase               SI** log IAP   log K(303 K,   1 atm)

  Anhydrite        -0.25     -4.58   -4.33  CaSO4
  Gypsum            0.00     -4.58   -4.58  CaSO4:2H2O
  H2(g)           -34.87    -37.98   -3.11  H2
  H2O(g)           -1.38     -0.00    1.38  H2O
  H2S(g)         -114.61   -122.59   -7.98  H2S
  O2(g)           -11.91    -14.84   -2.93  O2
  Sulfur          -85.68    -80.91    4.77  S

**For a gas, SI = log10(fugacity). Fugacity = pressure * phi / 1 atm.
  For ideal gases, phi = 1.

Reaction step 7.

Using solution 1.	Pure water
Using pure phase assemblage 1.	
Using temperature 1.	

-------------------------------Phase assemblage--------------------------------

                                                      Moles in assemblage
Phase               SI  log IAP  log K(T, P)   Initial       Final       Delta

Anhydrite        -0.24    -4.58     -4.35    1.000e+00           0  -1.000e+00
Gypsum            0.00    -4.58     -4.58    1.000e+00   1.985e+00   9.853e-01

-----------------------------Solution composition------------------------------

	Elements           Molality       Moles

	Ca                1.529e-02   1.475e-02
	S                 1.529e-02   1.475e-02

----------------------------Description of solution----------------------------

                                       pH  =   6.986      Charge balance
                                       pe  =  10.338      Adjusted to redox equilibrium
      Specific Conductance (µS/cm,  31°C)  = 2574
                          Density (g/cm³)  =   0.99739
                               Volume (L)  =   0.96903
                        Activity of water  =   1.000
                 Ionic strength (mol/kgw)  =   4.198e-02
                       Mass of water (kg)  =   9.645e-01
                 Total alkalinity (eq/kg)  =   1.261e-09
                         Temperature (°C)  =  31.00
                  Electrical balance (eq)  =  -1.217e-09
 Percent error, 100*(Cat-|An|)/(Cat+|An|)  =  -0.00
                               Iterations  =  17
                                  Total H  = 1.070714e+02
                                  Total O  = 5.359469e+01

----------------------------Distribution of species----------------------------

                                               Log       Log       Log    mole V
   Species          Molality    Activity  Molality  Activity     Gamma   cm³/mol

   OH-             1.858e-07   1.526e-07    -6.731    -6.816    -0.085     -3.71
   H+              1.202e-07   1.033e-07    -6.920    -6.986    -0.066      0.00
   H2O             5.551e+01   9.996e-01     1.744    -0.000     0.000     18.10
Ca            1.529e-02
   Ca+2            1.050e-02   5.153e-03    -1.979    -2.288    -0.309    -17.60
   CaSO4           4.792e-03   4.839e-03    -2.319    -2.315     0.004      7.71
   CaOH+           9.972e-09   8.273e-09    -8.001    -8.082    -0.081     (0)  
   CaHSO4+         4.335e-09   3.596e-09    -8.363    -8.444    -0.081     (0)  
H(0)          2.976e-38
   H2              1.488e-38   1.503e-38   -37.827   -37.823     0.004     28.60
O(0)          2.890e-15
   O2              1.445e-15   1.459e-15   -14.840   -14.836     0.004     30.84
S(-2)         0.000e+00
   HS-             0.000e+00   0.000e+00  -115.007  -115.092    -0.085     21.00
   H2S             0.000e+00   0.000e+00  -115.214  -115.210     0.004     37.19
   S-2             0.000e+00   0.000e+00  -120.533  -120.849    -0.316     (0)  
S(6)          1.529e-02
   SO4-2           1.050e-02   5.052e-03    -1.979    -2.297    -0.318     15.85
   CaSO4           4.792e-03   4.839e-03    -2.319    -2.315     0.004      7.71
   HSO4-           6.997e-08   5.804e-08    -7.155    -7.236    -0.081     40.80
   CaHSO4+         4.335e-09   3.596e-09    -8.363    -8.444    -0.081     (0)  

------------------------------Saturation indices-------------------------------

  Phase               SI** log IAP   log K(304 K,   1 atm)

  Anhydrite        -0.24     -4.58   -4.35  CaSO4
  Gypsum            0.00     -4.58   -4.58  CaSO4:2H2O
  H2(g)           -34.71    -37.82   -3.11  H2
  H2O(g)           -1.35     -0.00    1.35  H2O
  H2S(g)         -114.10   -122.08   -7.98  H2S
  O2(g)           -11.90    -14.84   -2.93  O2
  Sulfur          -85.31    -80.56    4.74  S

**For a gas, SI = log10(fugacity). Fugacity = pressure * phi / 1 atm.
  For ideal gases, phi = 1.

Reaction step 8.

Using solution 1.	Pure water
Using pure phase assemblage 1.	
Using temperature 1.	

-------------------------------Phase assemblage--------------------------------

                                                      Moles in assemblage
Phase               SI  log IAP  log K(T, P)   Initial       Final       Delta

Anhydrite        -0.23    -4.59     -4.36    1.000e+00           0  -1.000e+00
Gypsum            0.00    -4.59     -4.59    1.000e+00   1.985e+00   9.852e-01

-----------------------------Solution composition------------------------------

	Elements           Molality       Moles

	Ca                1.532e-02   1.477e-02
	S                 1.532e-02   1.477e-02

----------------------------Description of solution----------------------------

                                       pH  =   6.973      Charge balance
                                       pe  =  10.271      Adjusted to redox equilibrium
      Specific Conductance (µS/cm,  32°C)  = 2627
                          Density (g/cm³)  =   0.99708
                               Volume (L)  =   0.96934
                        Activity of water  =   1.000
                 Ionic strength (mol/kgw)  =   4.200e-02
                       Mass of water (kg)  =   9.645e-01
                 Total alkalinity (eq/kg)  =   1.261e-09
                         Temperature (°C)  =  32.00
                  Electrical balance (eq)  =  -1.217e-09
 Percent error, 100*(Cat-|An|)/(Cat+|An|)  =  -0.00
                               Iterations  =  17
                                  Total H  = 1.070715e+02
                                  Total O  = 5.359486e+01

----------------------------Distribution of species----------------------------

                                               Log       Log       Log    mole V
   Species          Molality    Activity  Molality  Activity     Gamma   cm³/mol

   OH-             1.938e-07   1.591e-07    -6.713    -6.798    -0.086     -3.68
   H+              1.239e-07   1.065e-07    -6.907    -6.973    -0.066      0.00
   H2O             5.551e+01   9.996e-01     1.744    -0.000     0.000     18.11
Ca            1.532e-02
   Ca+2            1.050e-02   5.148e-03    -1.979    -2.288    -0.309    -17.59
   CaSO4           4.818e-03   4.864e-03    -2.317    -2.313     0.004      7.74
   CaOH+           9.673e-09   8.021e-09    -8.014    -8.096    -0.081     (0)  
   CaHSO4+         4.563e-09   3.784e-09    -8.341    -8.422    -0.081     (0)  
H(0)          4.261e-38
   H2              2.131e-38   2.151e-38   -37.672   -37.667     0.004     28.60
O(0)          2.873e-15
   O2              1.436e-15   1.450e-15   -14.843   -14.839     0.004     30.91
S(-2)         0.000e+00
   HS-             0.000e+00   0.000e+00  -114.495  -114.581    -0.086     21.04
   H2S             0.000e+00   0.000e+00  -114.702  -114.697     0.004     37.19
   S-2             0.000e+00   0.000e+00  -120.006  -120.323    -0.316     (0)  
S(6)          1.532e-02
   SO4-2           1.050e-02   5.047e-03    -1.979    -2.297    -0.318     15.94
   CaSO4           4.818e-03   4.864e-03    -2.317    -2.313     0.004      7.74
   HSO4-           7.372e-08   6.113e-08    -7.132    -7.214    -0.081     40.85
   CaHSO4+         4.563e-09   3.784e-09    -8.341    -8.422    -0.081     (0)  

------------------------------Saturation indices-------------------------------

  Phase               SI** log IAP   log K(305 K,   1 atm)

  Anhydrite        -0.23     -4.59   -4.36  CaSO4
  Gypsum            0.00     -4.59   -4.59  CaSO4:2H2O
  H2(g)           -34.55    -37.67   -3.12  H2
  H2O(g)           -1.33     -0.00    1.33  H2O
  H2S(g)         -113.58   -121.55   -7.98  H2S
  O2(g)           -11.90    -14.84   -2.94  O2
  Sulfur          -84.93    -80.21    4.72  S

**For a gas, SI = log10(fugacity). Fugacity = pressure * phi / 1 atm.
  For ideal gases, phi = 1.

Reaction step 9.

Using solution 1.	Pure water
Using pure phase assemblage 1.	
Using temperature 1.	

-------------------------------Phase assemblage--------------------------------

                                                      Moles in assemblage
Phase               SI  log IAP  log K(T, P)   Initial       Final       Delta

Anhydrite        -0.22    -4.59     -4.37    1.000e+00           0  -1.000e+00
Gypsum            0.00    -4.59     -4.59    1.000e+00   1.985e+00   9.852e-01

-----------------------------Solution composition------------------------------

	Elements           Molality       Moles

	Ca                1.534e-02   1.480e-02
	S                 1.534e-02   1.480e-02

----------------------------Description of solution----------------------------

                                       pH  =   6.960      Charge balance
                                       pe  =  10.206      Adjusted to redox equilibrium
      Specific Conductance (µS/cm,  33°C)  = 2679
                          Density (g/cm³)  =   0.99676
                               Volume (L)  =   0.96966
                        Activity of water  =   1.000
                 Ionic strength (mol/kgw)  =   4.201e-02
                       Mass of water (kg)  =   9.645e-01
                 Total alkalinity (eq/kg)  =   1.261e-09
                         Temperature (°C)  =  33.00
                  Electrical balance (eq)  =  -1.207e-09
 Percent error, 100*(Cat-|An|)/(Cat+|An|)  =  -0.00
                               Iterations  =  20
                                  Total H  = 1.070716e+02
                                  Total O  = 5.359501e+01

----------------------------Distribution of species----------------------------

                                               Log       Log       Log    mole V
   Species          Molality    Activity  Molality  Activity     Gamma   cm³/mol

   OH-             2.020e-07   1.658e-07    -6.695    -6.780    -0.086     -3.66
   H+              1.276e-07   1.097e-07    -6.894    -6.960    -0.066      0.00
   H2O             5.551e+01   9.996e-01     1.744    -0.000     0.000     18.11
Ca            1.534e-02
   Ca+2            1.050e-02   5.143e-03    -1.979    -2.289    -0.310    -17.58
   CaSO4           4.841e-03   4.889e-03    -2.315    -2.311     0.004      7.77
   CaOH+           9.384e-09   7.779e-09    -8.028    -8.109    -0.081     (0)  
   CaHSO4+         4.801e-09   3.980e-09    -8.319    -8.400    -0.081     (0)  
H(0)          6.053e-38
   H2              3.026e-38   3.056e-38   -37.519   -37.515     0.004     28.60
O(0)          2.888e-15
   O2              1.444e-15   1.458e-15   -14.840   -14.836     0.004     30.97
S(-2)         0.000e+00
   HS-             0.000e+00   0.000e+00  -113.998  -114.083    -0.086     21.07
   H2S             0.000e+00   0.000e+00  -114.202  -114.198     0.004     37.19
   S-2             0.000e+00   0.000e+00  -119.493  -119.810    -0.317     (0)  
S(6)          1.534e-02
   SO4-2           1.050e-02   5.042e-03    -1.979    -2.297    -0.319     16.03
   CaSO4           4.841e-03   4.889e-03    -2.315    -2.311     0.004      7.77
   HSO4-           7.765e-08   6.436e-08    -7.110    -7.191    -0.081     40.90
   CaHSO4+         4.801e-09   3.980e-09    -8.319    -8.400    -0.081     (0)  

------------------------------Saturation indices-------------------------------

  Phase               SI** log IAP   log K(306 K,   1 atm)

  Anhydrite        -0.22     -4.59   -4.37  CaSO4
  Gypsum            0.00     -4.59   -4.59  CaSO4:2H2O
  H2(g)           -34.40    -37.51   -3.12  H2
  H2O(g)           -1.30     -0.00    1.30  H2O
  H2S(g)         -113.07   -121.04   -7.97  H2S
  O2(g)           -11.89    -14.84   -2.95  O2
  Sulfur          -84.57    -79.87    4.70  S

**For a gas, SI = log10(fugacity). Fugacity = pressure * phi / 1 atm.
  For ideal gases, phi = 1.

Reaction step 10.

Using solution 1.	Pure water
Using pure phase assemblage 1.	
Using temperature 1.	

-------------------------------Phase assemblage--------------------------------

                                                      Moles in assemblage
Phase               SI  log IAP  log K(T, P)   Initial       Final       Delta

Anhydrite        -0.21    -4.59     -4.38    1.000e+00           0  -1.000e+00
Gypsum            0.00    -4.59     -4.59    1.000e+00   1.985e+00   9.852e-01

-----------------------------Solution composition------------------------------

	Elements           Molality       Moles

	Ca                1.537e-02   1.482e-02
	S                 1.537e-02   1.482e-02

----------------------------Description of solution----------------------------

                                       pH  =   6.947      Charge balance
                                       pe  =  10.140      Adjusted to redox equilibrium
      Specific Conductance (µS/cm,  34°C)  = 2731
                          Density (g/cm³)  =   0.99643
                               Volume (L)  =   0.96999
                        Activity of water  =   1.000
                 Ionic strength (mol/kgw)  =   4.201e-02
                       Mass of water (kg)  =   9.645e-01
                 Total alkalinity (eq/kg)  =   1.261e-09
                         Temperature (°C)  =  34.00
                  Electrical balance (eq)  =  -1.217e-09
 Percent error, 100*(Cat-|An|)/(Cat+|An|)  =  -0.00
                               Iterations  =  17
                                  Total H  = 1.070717e+02
                                  Total O  = 5.359514e+01

----------------------------Distribution of species----------------------------

                                               Log       Log       Log    mole V
   Species          Molality    Activity  Molality  Activity     Gamma   cm³/mol

   OH-             2.104e-07   1.727e-07    -6.677    -6.763    -0.086     -3.64
   H+              1.315e-07   1.129e-07    -6.881    -6.947    -0.066      0.00
   H2O             5.551e+01   9.996e-01     1.744    -0.000     0.000     18.12
Ca            1.537e-02
   Ca+2            1.050e-02   5.137e-03    -1.979    -2.289    -0.311    -17.58
   CaSO4           4.864e-03   4.911e-03    -2.313    -2.309     0.004      7.80
   CaOH+           9.105e-09   7.545e-09    -8.041    -8.122    -0.082     (0)  
   CaHSO4+         5.049e-09   4.184e-09    -8.297    -8.378    -0.082     (0)  
H(0)          8.610e-38
   H2              4.305e-38   4.347e-38   -37.366   -37.362     0.004     28.60
O(0)          2.881e-15
   O2              1.440e-15   1.454e-15   -14.842   -14.837     0.004     31.04
S(-2)         0.000e+00
   HS-             0.000e+00   0.000e+00  -113.496  -113.582    -0.086     21.10
   H2S             0.000e+00   0.000e+00  -113.699  -113.695     0.004     37.20
   S-2             0.000e+00   0.000e+00  -118.976  -119.293    -0.318     (0)  
S(6)          1.537e-02
   SO4-2           1.050e-02   5.036e-03    -1.979    -2.298    -0.319     16.12
   CaSO4           4.864e-03   4.911e-03    -2.313    -2.309     0.004      7.80
   HSO4-           8.176e-08   6.775e-08    -7.087    -7.169    -0.082     40.95
   CaHSO4+         5.049e-09   4.184e-09    -8.297    -8.378    -0.082     (0)  

------------------------------Saturation indices-------------------------------

  Phase               SI** log IAP   log K(307 K,   1 atm)

  Anhydrite        -0.21     -4.59   -4.38  CaSO4
  Gypsum            0.00     -4.59   -4.59  CaSO4:2H2O
  H2(g)           -34.24    -37.36   -3.12  H2
  H2O(g)           -1.28     -0.00    1.28  H2O
  H2S(g)         -112.56   -120.53   -7.97  H2S
  O2(g)           -11.89    -14.84   -2.95  O2
  Sulfur          -84.20    -79.52    4.68  S

**For a gas, SI = log10(fugacity). Fugacity = pressure * phi / 1 atm.
  For ideal gases, phi = 1.

Reaction step 11.

Using solution 1.	Pure water
Using pure phase assemblage 1.	
Using temperature 1.	

-------------------------------Phase assemblage--------------------------------

                                                      Moles in assemblage
Phase               SI  log IAP  log K(T, P)   Initial       Final       Delta

Anhydrite        -0.20    -4.59     -4.39    1.000e+00           0  -1.000e+00
Gypsum            0.00    -4.59     -4.59    1.000e+00   1.985e+00   9.852e-01

-----------------------------Solution composition------------------------------

	Elements           Molality       Moles

	Ca                1.539e-02   1.484e-02
	S                 1.539e-02   1.484e-02

----------------------------Description of solution----------------------------

                                       pH  =   6.935      Charge balance
                                       pe  =  10.074      Adjusted to redox equilibrium
      Specific Conductance (µS/cm,  35°C)  = 2784
                          Density (g/cm³)  =   0.99609
                               Volume (L)  =   0.97032
                        Activity of water  =   1.000
                 Ionic strength (mol/kgw)  =   4.200e-02
                       Mass of water (kg)  =   9.645e-01
                 Total alkalinity (eq/kg)  =   1.261e-09
                         Temperature (°C)  =  35.00
                  Electrical balance (eq)  =  -1.210e-09
 Percent error, 100*(Cat-|An|)/(Cat+|An|)  =  -0.00
                               Iterations  =  20
                                  Total H  = 1.070718e+02
                                  Total O  = 5.359525e+01

----------------------------Distribution of species----------------------------

                                               Log       Log       Log    mole V
   Species          Molality    Activity  Molality  Activity     Gamma   cm³/mol

   OH-             2.192e-07   1.798e-07    -6.659    -6.745    -0.086     -3.62
   H+              1.354e-07   1.163e-07    -6.868    -6.935    -0.066      0.00
   H2O             5.551e+01   9.996e-01     1.744    -0.000     0.000     18.12
Ca            1.539e-02
   Ca+2            1.050e-02   5.130e-03    -1.979    -2.290    -0.311    -17.57
   CaSO4           4.885e-03   4.932e-03    -2.311    -2.307     0.004      7.83
   CaOH+           8.836e-09   7.319e-09    -8.054    -8.136    -0.082     (0)  
   CaHSO4+         5.308e-09   4.397e-09    -8.275    -8.357    -0.082     (0)  
H(0)          1.222e-37
   H2              6.109e-38   6.168e-38   -37.214   -37.210     0.004     28.60
O(0)          2.875e-15
   O2              1.437e-15   1.451e-15   -14.842   -14.838     0.004     31.10
S(-2)         0.000e+00
   HS-             0.000e+00   0.000e+00  -112.999  -113.085    -0.086     21.12
   H2S             0.000e+00   0.000e+00  -113.200  -113.196     0.004     37.20
   S-2             0.000e+00   0.000e+00  -118.462  -118.780    -0.318     (0)  
S(6)          1.539e-02
   SO4-2           1.050e-02   5.029e-03    -1.979    -2.299    -0.320     16.20
   CaSO4           4.885e-03   4.932e-03    -2.311    -2.307     0.004      7.83
   HSO4-           8.607e-08   7.130e-08    -7.065    -7.147    -0.082     40.99
   CaHSO4+         5.308e-09   4.397e-09    -8.275    -8.357    -0.082     (0)  

------------------------------Saturation indices-------------------------------

  Phase               SI** log IAP   log K(308 K,   1 atm)

  Anhydrite        -0.20     -4.59   -4.39  CaSO4
  Gypsum            0.00     -4.59   -4.59  CaSO4:2H2O
  H2(g)           -34.09    -37.21   -3.12  H2
  H2O(g)           -1.26     -0.00    1.26  H2O
  H2S(g)         -112.05   -120.02   -7.97  H2S
  O2(g)           -11.88    -14.84   -2.96  O2
  Sulfur          -83.83    -79.18    4.66  S

**For a gas, SI = log10(fugacity). Fugacity = pressure * phi / 1 atm.
  For ideal gases, phi = 1.

Reaction step 12.

Using solution 1.	Pure water
Using pure phase assemblage 1.	
Using temperature 1.	

-------------------------------Phase assemblage--------------------------------

                                                      Moles in assemblage
Phase               SI  log IAP  log K(T, P)   Initial       Final       Delta

Anhydrite        -0.19    -4.59     -4.40    1.000e+00           0  -1.000e+00
Gypsum            0.00    -4.59     -4.59    1.000e+00   1.985e+00   9.851e-01

-----------------------------Solution composition------------------------------

	Elements           Molality       Moles

	Ca                1.540e-02   1.485e-02
	S                 1.540e-02   1.485e-02

----------------------------Description of solution----------------------------

                                       pH  =   6.922      Charge balance
                                       pe  =  10.010      Adjusted to redox equilibrium
      Specific Conductance (µS/cm,  36°C)  = 2836
                          Density (g/cm³)  =   0.99574
                               Volume (L)  =   0.97066
                        Activity of water  =   1.000
                 Ionic strength (mol/kgw)  =   4.199e-02
                       Mass of water (kg)  =   9.645e-01
                 Total alkalinity (eq/kg)  =   1.261e-09
                         Temperature (°C)  =  36.00
                  Electrical balance (eq)  =  -1.209e-09
 Percent error, 100*(Cat-|An|)/(Cat+|An|)  =  -0.00
                               Iterations  =  16
                                  Total H  = 1.070719e+02
                                  Total O  = 5.359535e+01

----------------------------Distribution of species----------------------------

                                               Log       Log       Log    mole V
   Species          Molality    Activity  Molality  Activity     Gamma   cm³/mol

   OH-             2.282e-07   1.871e-07    -6.642    -6.728    -0.086     -3.60
   H+              1.394e-07   1.196e-07    -6.856    -6.922    -0.066      0.00
   H2O             5.551e+01   9.996e-01     1.744    -0.000     0.000     18.13
Ca            1.540e-02
   Ca+2            1.050e-02   5.122e-03    -1.979    -2.291    -0.312    -17.57
   CaSO4           4.905e-03   4.952e-03    -2.309    -2.305     0.004      7.86
   CaOH+           8.576e-09   7.102e-09    -8.067    -8.149    -0.082     (0)  
   CaHSO4+         5.578e-09   4.619e-09    -8.254    -8.335    -0.082     (0)  
H(0)          1.728e-37
   H2              8.638e-38   8.722e-38   -37.064   -37.059     0.004     28.60
O(0)          2.877e-15
   O2              1.438e-15   1.452e-15   -14.842   -14.838     0.004     31.16
S(-2)         0.000e+00
   HS-             0.000e+00   0.000e+00  -112.507  -112.593    -0.086     21.15
   H2S             0.000e+00   0.000e+00  -112.707  -112.702     0.004     37.20
   S-2             0.000e+00   0.000e+00  -117.955  -118.273    -0.319     (0)  
S(6)          1.540e-02
   SO4-2           1.050e-02   5.021e-03    -1.979    -2.299    -0.320     16.27
   CaSO4           4.905e-03   4.952e-03    -2.309    -2.305     0.004      7.86
   HSO4-           9.058e-08   7.501e-08    -7.043    -7.125    -0.082     41.04
   CaHSO4+         5.578e-09   4.619e-09    -8.254    -8.335    -0.082     (0)  

------------------------------Saturation indices-------------------------------

  Phase               SI** log IAP   log K(309 K,   1 atm)

  Anhydrite        -0.19     -4.59   -4.40  CaSO4
  Gypsum            0.00     -4.59   -4.59  CaSO4:2H2O
  H2(g)           -33.94    -37.06   -3.12  H2
  H2O(g)           -1.23     -0.00    1.23  H2O
  H2S(g)         -111.55   -119.52   -7.97  H2S
  O2(g)           -11.88    -14.84   -2.96  O2
  Sulfur          -83.47    -78.84    4.63  S

**For a gas, SI = log10(fugacity). Fugacity = pressure * phi / 1 atm.
  For ideal gases, phi = 1.

Reaction step 13.

Using solution 1.	Pure water
Using pure phase assemblage 1.	
Using temperature 1.	

-------------------------------Phase assemblage--------------------------------

                                                      Moles in assemblage
Phase               SI  log IAP  log K(T, P)   Initial       Final       Delta

Anhydrite        -0.18    -4.59     -4.42    1.000e+00           0  -1.000e+00
Gypsum            0.00    -4.59     -4.59    1.000e+00   1.985e+00   9.851e-01

-----------------------------Solution composition------------------------------

	Elements           Molality       Moles

	Ca                1.541e-02   1.487e-02
	S                 1.541e-02   1.487e-02

----------------------------Description of solution----------------------------

                                       pH  =   6.910      Charge balance
                                       pe  =  -1.777      Adjusted to redox equilibrium
      Specific Conductance (µS/cm,  37°C)  = 2888
                          Density (g/cm³)  =   0.99538
                               Volume (L)  =   0.97101
                        Activity of water  =   1.000
                 Ionic strength (mol/kgw)  =   4.197e-02
                       Mass of water (kg)  =   9.645e-01
                 Total alkalinity (eq/kg)  =   1.261e-09
                         Temperature (°C)  =  37.00
                  Electrical balance (eq)  =  -1.217e-09
 Percent error, 100*(Cat-|An|)/(Cat+|An|)  =  -0.00
                               Iterations  =  50
                                  Total H  = 1.070719e+02
                                  Total O  = 5.359542e+01

----------------------------Distribution of species----------------------------

                                               Log       Log       Log    mole V
   Species          Molality    Activity  Molality  Activity     Gamma   cm³/mol

   OH-             2.375e-07   1.947e-07    -6.624    -6.711    -0.086     -3.59
   H+              1.434e-07   1.231e-07    -6.843    -6.910    -0.066      0.00
   H2O             5.551e+01   9.996e-01     1.744    -0.000     0.000     18.14
Ca            1.541e-02
   Ca+2            1.049e-02   5.114e-03    -1.979    -2.291    -0.312    -17.57
   CaSO4           4.923e-03   4.971e-03    -2.308    -2.304     0.004      7.88
   CaOH+           8.325e-09   6.892e-09    -8.080    -8.162    -0.082     (0)  
   CaHSO4+         5.859e-09   4.850e-09    -8.232    -8.314    -0.082     (0)  
H(0)          6.797e-14
   H2              3.398e-14   3.431e-14   -13.469   -13.465     0.004     28.60
O(0)          0.000e+00
   O2              0.000e+00   0.000e+00   -61.733   -61.728     0.004     31.22
S(-2)         9.473e-19
   HS-             5.797e-19   4.752e-19   -18.237   -18.323    -0.086     21.17
   H2S             3.676e-19   3.712e-19   -18.435   -18.430     0.004     37.20
   S-2             2.142e-24   1.028e-24   -23.669   -23.988    -0.319     (0)  
S(6)          1.541e-02
   SO4-2           1.049e-02   5.013e-03    -1.979    -2.300    -0.321     16.34
   CaSO4           4.923e-03   4.971e-03    -2.308    -2.304     0.004      7.88
   HSO4-           9.530e-08   7.889e-08    -7.021    -7.103    -0.082     41.08
   CaHSO4+         5.859e-09   4.850e-09    -8.232    -8.314    -0.082     (0)  

------------------------------Saturation indices-------------------------------

  Phase               SI** log IAP   log K(310 K,   1 atm)

  Anhydrite        -0.18     -4.59   -4.42  CaSO4
  Gypsum            0.00     -4.59   -4.59  CaSO4:2H2O
  H2(g)           -10.34    -13.46   -3.12  H2
  H2O(g)           -1.21     -0.00    1.21  H2O
  H2S(g)          -17.27    -25.23   -7.97  H2S
  O2(g)           -58.76    -61.73   -2.97  O2
  Sulfur          -12.78     -8.17    4.61  S

**For a gas, SI = log10(fugacity). Fugacity = pressure * phi / 1 atm.
  For ideal gases, phi = 1.

Reaction step 14.

Using solution 1.	Pure water
Using pure phase assemblage 1.	
Using temperature 1.	

-------------------------------Phase assemblage--------------------------------

                                                      Moles in assemblage
Phase               SI  log IAP  log K(T, P)   Initial       Final       Delta

Anhydrite        -0.17    -4.59     -4.43    1.000e+00           0  -1.000e+00
Gypsum            0.00    -4.59     -4.59    1.000e+00   1.985e+00   9.851e-01

-----------------------------Solution composition------------------------------

	Elements           Molality       Moles

	Ca                1.543e-02   1.488e-02
	S                 1.543e-02   1.488e-02

----------------------------Description of solution----------------------------

                                       pH  =   6.898      Charge balance
                                       pe  =   9.881      Adjusted to redox equilibrium
      Specific Conductance (µS/cm,  38°C)  = 2939
                          Density (g/cm³)  =   0.99502
                               Volume (L)  =   0.97137
                        Activity of water  =   1.000
                 Ionic strength (mol/kgw)  =   4.194e-02
                       Mass of water (kg)  =   9.645e-01
                 Total alkalinity (eq/kg)  =   1.261e-09
                         Temperature (°C)  =  38.00
                  Electrical balance (eq)  =  -1.214e-09
 Percent error, 100*(Cat-|An|)/(Cat+|An|)  =  -0.00
                               Iterations  =  17
                                  Total H  = 1.070719e+02
                                  Total O  = 5.359548e+01

----------------------------Distribution of species----------------------------

                                               Log       Log       Log    mole V
   Species          Molality    Activity  Molality  Activity     Gamma   cm³/mol

   OH-             2.471e-07   2.025e-07    -6.607    -6.694    -0.086     -3.58
   H+              1.475e-07   1.266e-07    -6.831    -6.898    -0.066      0.00
   H2O             5.551e+01   9.996e-01     1.744    -0.000     0.000     18.14
Ca            1.543e-02
   Ca+2            1.049e-02   5.105e-03    -1.979    -2.292    -0.313    -17.57
   CaSO4           4.940e-03   4.988e-03    -2.306    -2.302     0.004      7.91
   CaOH+           8.083e-09   6.689e-09    -8.092    -8.175    -0.082     (0)  
   CaHSO4+         6.152e-09   5.091e-09    -8.211    -8.293    -0.082     (0)  
H(0)          3.435e-37
   H2              1.718e-37   1.734e-37   -36.765   -36.761     0.004     28.59
O(0)          2.873e-15
   O2              1.436e-15   1.450e-15   -14.843   -14.839     0.004     31.28
S(-2)         0.000e+00
   HS-             0.000e+00   0.000e+00  -111.531  -111.617    -0.086     21.19
   H2S             0.000e+00   0.000e+00  -111.727  -111.722     0.004     37.21
   S-2             0.000e+00   0.000e+00  -116.947  -117.267    -0.320     (0)  
S(6)          1.543e-02
   SO4-2           1.049e-02   5.005e-03    -1.979    -2.301    -0.321     16.41
   CaSO4           4.940e-03   4.988e-03    -2.306    -2.302     0.004      7.91
   HSO4-           1.002e-07   8.295e-08    -6.999    -7.081    -0.082     41.12
   CaHSO4+         6.152e-09   5.091e-09    -8.211    -8.293    -0.082     (0)  

------------------------------Saturation indices-------------------------------

  Phase               SI** log IAP   log K(311 K,   1 atm)

  Anhydrite        -0.17     -4.59   -4.43  CaSO4
  Gypsum            0.00     -4.59   -4.59  CaSO4:2H2O
  H2(g)           -33.64    -36.76   -3.13  H2
  H2O(g)           -1.18     -0.00    1.18  H2O
  H2S(g)         -110.55   -118.51   -7.97  H2S
  O2(g)           -11.86    -14.84   -2.97  O2
  Sulfur          -82.76    -78.17    4.59  S

**For a gas, SI = log10(fugacity). Fugacity = pressure * phi / 1 atm.
  For ideal gases, phi = 1.

Reaction step 15.

Using solution 1.	Pure water
Using pure phase assemblage 1.	
Using temperature 1.	

-------------------------------Phase assemblage--------------------------------

                                                      Moles in assemblage
Phase               SI  log IAP  log K(T, P)   Initial       Final       Delta

Anhydrite        -0.15    -4.59     -4.44    1.000e+00           0  -1.000e+00
Gypsum            0.00    -4.59     -4.59    1.000e+00   1.985e+00   9.851e-01

-----------------------------Solution composition------------------------------

	Elements           Molality       Moles

	Ca                1.543e-02   1.488e-02
	S                 1.543e-02   1.488e-02

----------------------------Description of solution----------------------------

                                       pH  =   6.886      Charge balance
                                       pe  =   9.848      Adjusted to redox equilibrium
      Specific Conductance (µS/cm,  39°C)  = 2991
                          Density (g/cm³)  =   0.99465
                               Volume (L)  =   0.97173
                        Activity of water  =   1.000
                 Ionic strength (mol/kgw)  =   4.191e-02
                       Mass of water (kg)  =   9.645e-01
                 Total alkalinity (eq/kg)  =   1.261e-09
                         Temperature (°C)  =  39.00
                  Electrical balance (eq)  =  -1.214e-09
 Percent error, 100*(Cat-|An|)/(Cat+|An|)  =  -0.00
                               Iterations  =  15
                                  Total H  = 1.070720e+02
                                  Total O  = 5.359552e+01

----------------------------Distribution of species----------------------------

                                               Log       Log       Log    mole V
   Species          Molality    Activity  Molality  Activity     Gamma   cm³/mol

   OH-             2.570e-07   2.105e-07    -6.590    -6.677    -0.087     -3.56
   H+              1.517e-07   1.301e-07    -6.819    -6.886    -0.067      0.00
   H2O             5.551e+01   9.996e-01     1.744    -0.000     0.000     18.15
Ca            1.543e-02
   Ca+2            1.048e-02   5.095e-03    -1.980    -2.293    -0.313    -17.57
   CaSO4           4.955e-03   5.003e-03    -2.305    -2.301     0.004      7.94
   CaOH+           7.850e-09   6.494e-09    -8.105    -8.187    -0.082     (0)  
   CaHSO4+         6.456e-09   5.341e-09    -8.190    -8.272    -0.082     (0)  
H(0)          4.196e-37
   H2              2.098e-37   2.118e-37   -36.678   -36.674     0.004     28.59
O(0)          3.801e-15
   O2              1.901e-15   1.919e-15   -14.721   -14.717     0.004     31.34
S(-2)         0.000e+00
   HS-             0.000e+00   0.000e+00  -111.291  -111.378    -0.087     21.21
   H2S             0.000e+00   0.000e+00  -111.485  -111.481     0.004     37.21
   S-2             0.000e+00   0.000e+00  -116.693  -117.013    -0.320     (0)  
S(6)          1.543e-02
   SO4-2           1.048e-02   4.995e-03    -1.980    -2.301    -0.322     16.47
   CaSO4           4.955e-03   5.003e-03    -2.305    -2.301     0.004      7.94
   HSO4-           1.054e-07   8.720e-08    -6.977    -7.060    -0.082     41.15
   CaHSO4+         6.456e-09   5.341e-09    -8.190    -8.272    -0.082     (0)  

------------------------------Saturation indices-------------------------------

  Phase               SI** log IAP   log K(312 K,   1 atm)

  Anhydrite        -0.15     -4.59   -4.44  CaSO4
  Gypsum            0.00     -4.59   -4.59  CaSO4:2H2O
  H2(g)           -33.55    -36.67   -3.13  H2
  H2O(g)           -1.16     -0.00    1.16  H2O
  H2S(g)         -110.30   -118.26   -7.96  H2S
  O2(g)           -11.74    -14.72   -2.98  O2
  Sulfur          -82.58    -78.01    4.57  S

**For a gas, SI = log10(fugacity). Fugacity = pressure * phi / 1 atm.
  For ideal gases, phi = 1.

Reaction step 16.

Using solution 1.	Pure water
Using pure phase assemblage 1.	
Using temperature 1.	

-------------------------------Phase assemblage--------------------------------

                                                      Moles in assemblage
Phase               SI  log IAP  log K(T, P)   Initial       Final       Delta

Anhydrite        -0.14    -4.60     -4.45    1.000e+00           0  -1.000e+00
Gypsum            0.00    -4.60     -4.60    1.000e+00   1.985e+00   9.851e-01

-----------------------------Solution composition------------------------------

	Elements           Molality       Moles

	Ca                1.544e-02   1.489e-02
	S                 1.544e-02   1.489e-02

----------------------------Description of solution----------------------------

                                       pH  =   6.874      Charge balance
                                       pe  =   9.755      Adjusted to redox equilibrium
      Specific Conductance (µS/cm,  40°C)  = 3042
                          Density (g/cm³)  =   0.99427
                               Volume (L)  =   0.97210
                        Activity of water  =   1.000
                 Ionic strength (mol/kgw)  =   4.187e-02
                       Mass of water (kg)  =   9.645e-01
                 Total alkalinity (eq/kg)  =   1.261e-09
                         Temperature (°C)  =  40.00
                  Electrical balance (eq)  =  -1.214e-09
 Percent error, 100*(Cat-|An|)/(Cat+|An|)  =  -0.00
                               Iterations  =  17
                                  Total H  = 1.070720e+02
                                  Total O  = 5.359555e+01

----------------------------Distribution of species----------------------------

                                               Log       Log       Log    mole V
   Species          Molality    Activity  Molality  Activity     Gamma   cm³/mol

   OH-             2.671e-07   2.188e-07    -6.573    -6.660    -0.087     -3.55
   H+              1.559e-07   1.338e-07    -6.807    -6.874    -0.067      0.00
   H2O             5.551e+01   9.996e-01     1.744    -0.000     0.000     18.16
Ca            1.544e-02
   Ca+2            1.047e-02   5.085e-03    -1.980    -2.294    -0.314    -17.57
   CaSO4           4.969e-03   5.017e-03    -2.304    -2.300     0.004      7.96
   CaOH+           7.624e-09   6.306e-09    -8.118    -8.200    -0.082     (0)  
   CaHSO4+         6.773e-09   5.602e-09    -8.169    -8.252    -0.082     (0)  
H(0)          6.740e-37
   H2              3.370e-37   3.403e-37   -36.472   -36.468     0.004     28.59
O(0)          2.896e-15
   O2              1.448e-15   1.462e-15   -14.839   -14.835     0.004     31.40
S(-2)         0.000e+00
   HS-             0.000e+00   0.000e+00  -110.576  -110.662    -0.087     21.23
   H2S             0.000e+00   0.000e+00  -110.767  -110.763     0.004     37.21
   S-2             0.000e+00   0.000e+00  -115.961  -116.282    -0.320     (0)  
S(6)          1.544e-02
   SO4-2           1.047e-02   4.985e-03    -1.980    -2.302    -0.322     16.53
   CaSO4           4.969e-03   5.017e-03    -2.304    -2.300     0.004      7.96
   HSO4-           1.108e-07   9.163e-08    -6.956    -7.038    -0.082     41.19
   CaHSO4+         6.773e-09   5.602e-09    -8.169    -8.252    -0.082     (0)  

------------------------------Saturation indices-------------------------------

  Phase               SI** log IAP   log K(313 K,   1 atm)

  Anhydrite        -0.14     -4.60   -4.45  CaSO4
  Gypsum            0.00     -4.60   -4.60  CaSO4:2H2O
  H2(g)           -33.34    -36.47   -3.13  H2
  H2O(g)           -1.14     -0.00    1.14  H2O
  H2S(g)         -109.57   -117.54   -7.96  H2S
  O2(g)           -11.85    -14.84   -2.98  O2
  Sulfur          -82.06    -77.51    4.55  S

**For a gas, SI = log10(fugacity). Fugacity = pressure * phi / 1 atm.
  For ideal gases, phi = 1.

Reaction step 17.

Using solution 1.	Pure water
Using pure phase assemblage 1.	
Using temperature 1.	

-------------------------------Phase assemblage--------------------------------

                                                      Moles in assemblage
Phase               SI  log IAP  log K(T, P)   Initial       Final       Delta

Anhydrite        -0.13    -4.60     -4.46    1.000e+00           0  -1.000e+00
Gypsum            0.00    -4.60     -4.60    1.000e+00   1.985e+00   9.851e-01

-----------------------------Solution composition------------------------------

	Elements           Molality       Moles

	Ca                1.544e-02   1.489e-02
	S                 1.544e-02   1.489e-02

----------------------------Description of solution----------------------------

                                       pH  =   6.862      Charge balance
                                       pe  =   9.691      Adjusted to redox equilibrium
      Specific Conductance (µS/cm,  41°C)  = 3093
                          Density (g/cm³)  =   0.99388
                               Volume (L)  =   0.97248
                        Activity of water  =   1.000
                 Ionic strength (mol/kgw)  =   4.182e-02
                       Mass of water (kg)  =   9.645e-01
                 Total alkalinity (eq/kg)  =   1.261e-09
                         Temperature (°C)  =  41.00
                  Electrical balance (eq)  =  -1.213e-09
 Percent error, 100*(Cat-|An|)/(Cat+|An|)  =  -0.00
                               Iterations  =  15
                                  Total H  = 1.070720e+02
                                  Total O  = 5.359556e+01

----------------------------Distribution of species----------------------------

                                               Log       Log       Log    mole V
   Species          Molality    Activity  Molality  Activity     Gamma   cm³/mol

   OH-             2.776e-07   2.273e-07    -6.557    -6.643    -0.087     -3.55
   H+              1.603e-07   1.374e-07    -6.795    -6.862    -0.067      0.00
   H2O             5.551e+01   9.996e-01     1.744    -0.000     0.000     18.16
Ca            1.544e-02
   Ca+2            1.046e-02   5.074e-03    -1.981    -2.295    -0.314    -17.57
   CaSO4           4.982e-03   5.030e-03    -2.303    -2.298     0.004      7.99
   CaOH+           7.407e-09   6.124e-09    -8.130    -8.213    -0.083     (0)  
   CaHSO4+         7.102e-09   5.872e-09    -8.149    -8.231    -0.083     (0)  
H(0)          9.462e-37
   H2              4.731e-37   4.777e-37   -36.325   -36.321     0.004     28.59
O(0)          2.876e-15
   O2              1.438e-15   1.452e-15   -14.842   -14.838     0.004     31.46
S(-2)         0.000e+00
   HS-             0.000e+00   0.000e+00  -110.093  -110.180    -0.087     21.25
   H2S             0.000e+00   0.000e+00  -110.283  -110.279     0.004     37.22
   S-2             0.000e+00   0.000e+00  -115.464  -115.785    -0.321     (0)  
S(6)          1.544e-02
   SO4-2           1.046e-02   4.975e-03    -1.981    -2.303    -0.323     16.58
   CaSO4           4.982e-03   5.030e-03    -2.303    -2.298     0.004      7.99
   HSO4-           1.164e-07   9.626e-08    -6.934    -7.017    -0.083     41.22
   CaHSO4+         7.102e-09   5.872e-09    -8.149    -8.231    -0.083     (0)  

------------------------------Saturation indices-------------------------------

  Phase               SI** log IAP   log K(314 K,   1 atm)

  Anhydrite        -0.13     -4.60   -4.46  CaSO4
  Gypsum            0.00     -4.60   -4.60  CaSO4:2H2O
  H2(g)           -33.19    -36.32   -3.13  H2
  H2O(g)           -1.12     -0.00    1.12  H2O
  H2S(g)         -109.08   -117.04   -7.96  H2S
  O2(g)           -11.85    -14.84   -2.99  O2
  Sulfur          -81.70    -77.17    4.53  S

**For a gas, SI = log10(fugacity). Fugacity = pressure * phi / 1 atm.
  For ideal gases, phi = 1.

Reaction step 18.

Using solution 1.	Pure water
Using pure phase assemblage 1.	
Using temperature 1.	

-------------------------------Phase assemblage--------------------------------

                                                      Moles in assemblage
Phase               SI  log IAP  log K(T, P)   Initial       Final       Delta

Anhydrite        -0.12    -4.60     -4.48    1.000e+00           0  -1.000e+00
Gypsum            0.00    -4.60     -4.60    1.000e+00   1.985e+00   9.851e-01

-----------------------------Solution composition------------------------------

	Elements           Molality       Moles

	Ca                1.544e-02   1.489e-02
	S                 1.544e-02   1.489e-02

----------------------------Description of solution----------------------------

                                       pH  =   6.850      Charge balance
                                       pe  =   9.628      Adjusted to redox equilibrium
      Specific Conductance (µS/cm,  42°C)  = 3144
                          Density (g/cm³)  =   0.99348
                               Volume (L)  =   0.97287
                        Activity of water  =   1.000
                 Ionic strength (mol/kgw)  =   4.177e-02
                       Mass of water (kg)  =   9.645e-01
                 Total alkalinity (eq/kg)  =   1.261e-09
                         Temperature (°C)  =  42.00
                  Electrical balance (eq)  =  -1.214e-09
 Percent error, 100*(Cat-|An|)/(Cat+|An|)  =  -0.00
                               Iterations  =  15
                                  Total H  = 1.070720e+02
                                  Total O  = 5.359555e+01

----------------------------Distribution of species----------------------------

                                               Log       Log       Log    mole V
   Species          Molality    Activity  Molality  Activity     Gamma   cm³/mol

   OH-             2.884e-07   2.361e-07    -6.540    -6.627    -0.087     -3.54
   H+              1.646e-07   1.412e-07    -6.783    -6.850    -0.067      0.00
   H2O             5.551e+01   9.996e-01     1.744    -0.000     0.000     18.17
Ca            1.544e-02
   Ca+2            1.044e-02   5.063e-03    -1.981    -2.296    -0.314    -17.57
   CaSO4           4.993e-03   5.042e-03    -2.302    -2.297     0.004      8.01
   CaHSO4+         7.443e-09   6.153e-09    -8.128    -8.211    -0.083     (0)  
   CaOH+           7.197e-09   5.949e-09    -8.143    -8.226    -0.083     (0)  
H(0)          1.318e-36
   H2              6.588e-37   6.652e-37   -36.181   -36.177     0.004     28.59
O(0)          2.890e-15
   O2              1.445e-15   1.459e-15   -14.840   -14.836     0.004     31.51
S(-2)         0.000e+00
   HS-             0.000e+00   0.000e+00  -109.625  -109.712    -0.087     21.27
   H2S             0.000e+00   0.000e+00  -109.812  -109.808     0.004     37.22
   S-2             0.000e+00   0.000e+00  -114.980  -115.301    -0.321     (0)  
S(6)          1.544e-02
   SO4-2           1.044e-02   4.964e-03    -1.981    -2.304    -0.323     16.63
   CaSO4           4.993e-03   5.042e-03    -2.302    -2.297     0.004      8.01
   HSO4-           1.223e-07   1.011e-07    -6.913    -6.995    -0.083     41.26
   CaHSO4+         7.443e-09   6.153e-09    -8.128    -8.211    -0.083     (0)  

------------------------------Saturation indices-------------------------------

  Phase               SI** log IAP   log K(315 K,   1 atm)

  Anhydrite        -0.12     -4.60   -4.48  CaSO4
  Gypsum            0.00     -4.60   -4.60  CaSO4:2H2O
  H2(g)           -33.05    -36.18   -3.13  H2
  H2O(g)           -1.09     -0.00    1.09  H2O
  H2S(g)         -108.60   -116.56   -7.96  H2S
  O2(g)           -11.84    -14.84   -2.99  O2
  Sulfur          -81.36    -76.85    4.51  S

**For a gas, SI = log10(fugacity). Fugacity = pressure * phi / 1 atm.
  For ideal gases, phi = 1.

Reaction step 19.

Using solution 1.	Pure water
Using pure phase assemblage 1.	
Using temperature 1.	

-------------------------------Phase assemblage--------------------------------

                                                      Moles in assemblage
Phase               SI  log IAP  log K(T, P)   Initial       Final       Delta

Anhydrite        -0.11    -4.60     -4.49    1.000e+00           0  -1.000e+00
Gypsum            0.00    -4.60     -4.60    1.000e+00   1.985e+00   9.851e-01

-----------------------------Solution composition------------------------------

	Elements           Molality       Moles

	Ca                1.543e-02   1.488e-02
	S                 1.543e-02   1.488e-02

----------------------------Description of solution----------------------------

                                       pH  =   6.839      Charge balance
                                       pe  =   9.566      Adjusted to redox equilibrium
      Specific Conductance (µS/cm,  43°C)  = 3194
                          Density (g/cm³)  =   0.99308
                               Volume (L)  =   0.97326
                        Activity of water  =   1.000
                 Ionic strength (mol/kgw)  =   4.171e-02
                       Mass of water (kg)  =   9.645e-01
                 Total alkalinity (eq/kg)  =   1.261e-09
                         Temperature (°C)  =  43.00
                  Electrical balance (eq)  =  -1.214e-09
 Percent error, 100*(Cat-|An|)/(Cat+|An|)  =  -0.00
                               Iterations  =  15
                                  Total H  = 1.070720e+02
                                  Total O  = 5.359552e+01

----------------------------Distribution of species----------------------------

                                               Log       Log       Log    mole V
   Species          Molality    Activity  Molality  Activity     Gamma   cm³/mol

   OH-             2.996e-07   2.452e-07    -6.523    -6.611    -0.087     -3.54
   H+              1.691e-07   1.450e-07    -6.772    -6.839    -0.067      0.00
   H2O             5.551e+01   9.996e-01     1.744    -0.000     0.000     18.18
Ca            1.543e-02
   Ca+2            1.043e-02   5.051e-03    -1.982    -2.297    -0.315    -17.57
   CaSO4           5.003e-03   5.052e-03    -2.301    -2.297     0.004      8.04
   CaHSO4+         7.798e-09   6.445e-09    -8.108    -8.191    -0.083     (0)  
   CaOH+           6.994e-09   5.780e-09    -8.155    -8.238    -0.083     (0)  
H(0)          1.839e-36
   H2              9.196e-37   9.285e-37   -36.036   -36.032     0.004     28.59
O(0)          2.879e-15
   O2              1.439e-15   1.453e-15   -14.842   -14.838     0.004     31.57
S(-2)         0.000e+00
   HS-             0.000e+00   0.000e+00  -109.151  -109.238    -0.087     21.28
   H2S             0.000e+00   0.000e+00  -109.336  -109.332     0.004     37.22
   S-2             0.000e+00   0.000e+00  -114.491  -114.813    -0.322     (0)  
S(6)          1.543e-02
   SO4-2           1.043e-02   4.952e-03    -1.982    -2.305    -0.323     16.67
   CaSO4           5.003e-03   5.052e-03    -2.301    -2.297     0.004      8.04
   HSO4-           1.284e-07   1.061e-07    -6.891    -6.974    -0.083     41.29
   CaHSO4+         7.798e-09   6.445e-09    -8.108    -8.191    -0.083     (0)  

------------------------------Saturation indices-------------------------------

  Phase               SI** log IAP   log K(316 K,   1 atm)

  Anhydrite        -0.11     -4.60   -4.49  CaSO4
  Gypsum            0.00     -4.60   -4.60  CaSO4:2H2O
  H2(g)           -32.90    -36.03   -3.13  H2
  H2O(g)           -1.07     -0.00    1.07  H2O
  H2S(g)         -108.12   -116.08   -7.96  H2S
  O2(g)           -11.84    -14.84   -3.00  O2
  Sulfur          -81.01    -76.52    4.49  S

**For a gas, SI = log10(fugacity). Fugacity = pressure * phi / 1 atm.
  For ideal gases, phi = 1.

Reaction step 20.

Using solution 1.	Pure water
Using pure phase assemblage 1.	
Using temperature 1.	

-------------------------------Phase assemblage--------------------------------

                                                      Moles in assemblage
Phase               SI  log IAP  log K(T, P)   Initial       Final       Delta

Anhydrite        -0.10    -4.60     -4.50    1.000e+00           0  -1.000e+00
Gypsum            0.00    -4.60     -4.60    1.000e+00   1.985e+00   9.851e-01

-----------------------------Solution composition------------------------------

	Elements           Molality       Moles

	Ca                1.542e-02   1.488e-02
	S                 1.542e-02   1.488e-02

----------------------------Description of solution----------------------------

                                       pH  =   6.827      Charge balance
                                       pe  =   9.503      Adjusted to redox equilibrium
      Specific Conductance (µS/cm,  44°C)  = 3245
                          Density (g/cm³)  =   0.99267
                               Volume (L)  =   0.97366
                        Activity of water  =   1.000
                 Ionic strength (mol/kgw)  =   4.165e-02
                       Mass of water (kg)  =   9.645e-01
                 Total alkalinity (eq/kg)  =   1.261e-09
                         Temperature (°C)  =  44.00
                  Electrical balance (eq)  =  -1.215e-09
 Percent error, 100*(Cat-|An|)/(Cat+|An|)  =  -0.00
                               Iterations  =  15
                                  Total H  = 1.070719e+02
                                  Total O  = 5.359548e+01

----------------------------Distribution of species----------------------------

                                               Log       Log       Log    mole V
   Species          Molality    Activity  Molality  Activity     Gamma   cm³/mol

   OH-             3.111e-07   2.545e-07    -6.507    -6.594    -0.087     -3.53
   H+              1.736e-07   1.488e-07    -6.760    -6.827    -0.067      0.00
   H2O             5.551e+01   9.996e-01     1.744    -0.000     0.000     18.19
Ca            1.542e-02
[...]
  O2(g)           -11.78    -14.87   -3.09  O2
  Sulfur          -72.45    -68.48    3.97  S

**For a gas, SI = log10(fugacity). Fugacity = pressure * phi / 1 atm.
  For ideal gases, phi = 1.

Reaction step 47.

Using solution 1.	Pure water
Using pure phase assemblage 1.	
Using temperature 1.	

-------------------------------Phase assemblage--------------------------------

                                                      Moles in assemblage
Phase               SI  log IAP  log K(T, P)   Initial       Final       Delta

Anhydrite         0.00    -4.85     -4.85    1.000e+00   1.989e+00   9.888e-01
Gypsum           -0.16    -4.85     -4.70    1.000e+00           0  -1.000e+00

-----------------------------Solution composition------------------------------

	Elements           Molality       Moles

	Ca                1.076e-02   1.115e-02
	S                 1.076e-02   1.115e-02

----------------------------Description of solution----------------------------

                                       pH  =   6.552      Charge balance
                                       pe  =   7.950      Adjusted to redox equilibrium
      Specific Conductance (µS/cm,  71°C)  = 3511
                          Density (g/cm³)  =   0.97860
                               Volume (L)  =   1.06024
                        Activity of water  =   1.000
                 Ionic strength (mol/kgw)  =   2.969e-02
                       Mass of water (kg)  =   1.036e+00
                 Total alkalinity (eq/kg)  =   1.174e-09
                         Temperature (°C)  =  71.00
                  Electrical balance (eq)  =  -1.215e-09
 Percent error, 100*(Cat-|An|)/(Cat+|An|)  =  -0.00
                               Iterations  =  16
                                  Total H  = 1.150124e+02
                                  Total O  = 5.755082e+01

----------------------------Distribution of species----------------------------

                                               Log       Log       Log    mole V
   Species          Molality    Activity  Molality  Activity     Gamma   cm³/mol

   OH-             7.264e-07   6.040e-07    -6.139    -6.219    -0.080     -4.04
   H+              3.249e-07   2.808e-07    -6.488    -6.552    -0.063      0.00
   H2O             5.551e+01   9.997e-01     1.744    -0.000     0.000     18.44
Ca            1.076e-02
   Ca+2            7.423e-03   3.772e-03    -2.129    -2.423    -0.294    -18.03
   CaSO4           3.341e-03   3.364e-03    -2.476    -2.473     0.003      8.54
   CaHSO4+         1.748e-08   1.464e-08    -7.757    -7.835    -0.077     (0)  
   CaOH+           2.663e-09   2.229e-09    -8.575    -8.652    -0.077     (0)  
H(0)          9.401e-33
   H2              4.700e-33   4.733e-33   -32.328   -32.325     0.003     28.58
O(0)          2.683e-15
   O2              1.342e-15   1.351e-15   -14.872   -14.869     0.003     32.83
S(-2)         0.000e+00
   HS-             0.000e+00   0.000e+00   -97.153   -97.233    -0.080     21.12
   H2S             0.000e+00   0.000e+00   -97.218   -97.215     0.003     37.27
   S-2             0.000e+00   0.000e+00  -102.115  -102.414    -0.299     (0)  
S(6)          1.076e-02
   SO4-2           7.422e-03   3.719e-03    -2.129    -2.430    -0.300     16.39
   CaSO4           3.341e-03   3.364e-03    -2.476    -2.473     0.003      8.54
   HSO4-           3.856e-07   3.227e-07    -6.414    -6.491    -0.077     41.57
   CaHSO4+         1.748e-08   1.464e-08    -7.757    -7.835    -0.077     (0)  

------------------------------Saturation indices-------------------------------

  Phase               SI** log IAP   log K(344 K,   1 atm)

  Anhydrite         0.00     -4.85   -4.85  CaSO4
  Gypsum           -0.16     -4.85   -4.70  CaSO4:2H2O
  H2(g)           -29.19    -32.32   -3.14  H2
  H2O(g)           -0.50     -0.00    0.50  H2O
  H2S(g)          -95.85   -103.78   -7.93  H2S
  O2(g)           -11.78    -14.87   -3.09  O2
  Sulfur          -72.16    -68.21    3.95  S

**For a gas, SI = log10(fugacity). Fugacity = pressure * phi / 1 atm.
  For ideal gases, phi = 1.

Reaction step 48.

Using solution 1.	Pure water
Using pure phase assemblage 1.	
Using temperature 1.	

-------------------------------Phase assemblage--------------------------------

                                                      Moles in assemblage
Phase               SI  log IAP  log K(T, P)   Initial       Final       Delta

Anhydrite         0.00    -4.87     -4.87    1.000e+00   1.989e+00   9.891e-01
Gypsum           -0.17    -4.87     -4.70    1.000e+00           0  -1.000e+00

-----------------------------Solution composition------------------------------

	Elements           Molality       Moles

	Ca                1.054e-02   1.092e-02
	S                 1.054e-02   1.092e-02

----------------------------Description of solution----------------------------

                                       pH  =   6.543      Charge balance
                                       pe  =   7.926      Adjusted to redox equilibrium
      Specific Conductance (µS/cm,  72°C)  = 3492
                          Density (g/cm³)  =   0.97799
                               Volume (L)  =   1.06087
                        Activity of water  =   1.000
                 Ionic strength (mol/kgw)  =   2.912e-02
                       Mass of water (kg)  =   1.036e+00
                 Total alkalinity (eq/kg)  =   1.174e-09
                         Temperature (°C)  =  72.00
                  Electrical balance (eq)  =  -1.217e-09
 Percent error, 100*(Cat-|An|)/(Cat+|An|)  =  -0.00
                               Iterations  =  17
                                  Total H  = 1.150124e+02
                                  Total O  = 5.754988e+01

----------------------------Distribution of species----------------------------

                                               Log       Log       Log    mole V
   Species          Molality    Activity  Molality  Activity     Gamma   cm³/mol

   OH-             7.459e-07   6.209e-07    -6.127    -6.207    -0.080     -4.08
   H+              3.314e-07   2.866e-07    -6.480    -6.543    -0.063      0.00
   H2O             5.551e+01   9.997e-01     1.744    -0.000     0.000     18.45
Ca            1.054e-02
   Ca+2            7.281e-03   3.713e-03    -2.138    -2.430    -0.292    -18.06
   CaSO4           3.256e-03   3.278e-03    -2.487    -2.484     0.003      8.55
   CaHSO4+         1.777e-08   1.489e-08    -7.750    -7.827    -0.077     (0)  
   CaOH+           2.565e-09   2.149e-09    -8.591    -8.668    -0.077     (0)  
H(0)          1.086e-32
   H2              5.432e-33   5.469e-33   -32.265   -32.262     0.003     28.58
O(0)          3.505e-15
   O2              1.752e-15   1.764e-15   -14.756   -14.753     0.003     32.87
S(-2)         0.000e+00
   HS-             0.000e+00   0.000e+00   -96.998   -97.077    -0.080     21.10
   H2S             0.000e+00   0.000e+00   -97.057   -97.055     0.003     37.27
   S-2             0.000e+00   0.000e+00  -101.948  -102.245    -0.297     (0)  
S(6)          1.054e-02
   SO4-2           7.280e-03   3.662e-03    -2.138    -2.436    -0.298     16.33
   CaSO4           3.256e-03   3.278e-03    -2.487    -2.484     0.003      8.55
   HSO4-           3.981e-07   3.336e-07    -6.400    -6.477    -0.077     41.56
   CaHSO4+         1.777e-08   1.489e-08    -7.750    -7.827    -0.077     (0)  

------------------------------Saturation indices-------------------------------

  Phase               SI** log IAP   log K(345 K,   1 atm)

  Anhydrite         0.00     -4.87   -4.87  CaSO4
  Gypsum           -0.17     -4.87   -4.70  CaSO4:2H2O
  H2(g)           -29.13    -32.26   -3.13  H2
  H2O(g)           -0.48     -0.00    0.48  H2O
  H2S(g)          -95.69   -103.62   -7.93  H2S
  O2(g)           -11.66    -14.75   -3.09  O2
  Sulfur          -72.05    -68.12    3.93  S

**For a gas, SI = log10(fugacity). Fugacity = pressure * phi / 1 atm.
  For ideal gases, phi = 1.

Reaction step 49.

Using solution 1.	Pure water
Using pure phase assemblage 1.	
Using temperature 1.	

-------------------------------Phase assemblage--------------------------------

                                                      Moles in assemblage
Phase               SI  log IAP  log K(T, P)   Initial       Final       Delta

Anhydrite         0.00    -4.88     -4.88    1.000e+00   1.989e+00   9.893e-01
Gypsum           -0.18    -4.88     -4.70    1.000e+00           0  -1.000e+00

-----------------------------Solution composition------------------------------

	Elements           Molality       Moles

	Ca                1.031e-02   1.069e-02
	S                 1.031e-02   1.069e-02

----------------------------Description of solution----------------------------

                                       pH  =   6.534      Charge balance
                                       pe  =   7.873      Adjusted to redox equilibrium
      Specific Conductance (µS/cm,  73°C)  = 3473
                          Density (g/cm³)  =   0.97738
                               Volume (L)  =   1.06150
                        Activity of water  =   1.000
                 Ionic strength (mol/kgw)  =   2.856e-02
                       Mass of water (kg)  =   1.036e+00
                 Total alkalinity (eq/kg)  =   1.174e-09
                         Temperature (°C)  =  73.00
                  Electrical balance (eq)  =  -1.217e-09
 Percent error, 100*(Cat-|An|)/(Cat+|An|)  =  -0.00
                               Iterations  =  17
                                  Total H  = 1.150124e+02
                                  Total O  = 5.754896e+01

----------------------------Distribution of species----------------------------

                                               Log       Log       Log    mole V
   Species          Molality    Activity  Molality  Activity     Gamma   cm³/mol

   OH-             7.658e-07   6.382e-07    -6.116    -6.195    -0.079     -4.12
   H+              3.381e-07   2.926e-07    -6.471    -6.534    -0.063      0.00
   H2O             5.551e+01   9.997e-01     1.744    -0.000     0.000     18.46
Ca            1.031e-02
   Ca+2            7.141e-03   3.654e-03    -2.146    -2.437    -0.291    -18.09
   CaSO4           3.173e-03   3.194e-03    -2.499    -2.496     0.003      8.57
   CaHSO4+         1.806e-08   1.514e-08    -7.743    -7.820    -0.076     (0)  
   CaOH+           2.471e-09   2.072e-09    -8.607    -8.684    -0.076     (0)  
H(0)          1.433e-32
   H2              7.164e-33   7.211e-33   -32.145   -32.142     0.003     28.58
O(0)          3.504e-15
   O2              1.752e-15   1.764e-15   -14.756   -14.754     0.003     32.91
S(-2)         0.000e+00
   HS-             0.000e+00   0.000e+00   -96.613   -96.692    -0.079     21.08
   H2S             0.000e+00   0.000e+00   -96.667   -96.664     0.003     37.28
   S-2             0.000e+00   0.000e+00  -101.551  -101.846    -0.296     (0)  
S(6)          1.031e-02
   SO4-2           7.141e-03   3.605e-03    -2.146    -2.443    -0.297     16.27
   CaSO4           3.173e-03   3.194e-03    -2.499    -2.496     0.003      8.57
   HSO4-           4.110e-07   3.447e-07    -6.386    -6.463    -0.076     41.55
   CaHSO4+         1.806e-08   1.514e-08    -7.743    -7.820    -0.076     (0)  

------------------------------Saturation indices-------------------------------

  Phase               SI** log IAP   log K(346 K,   1 atm)

  Anhydrite         0.00     -4.88   -4.88  CaSO4
  Gypsum           -0.18     -4.88   -4.70  CaSO4:2H2O
  H2(g)           -29.01    -32.14   -3.13  H2
  H2O(g)           -0.46     -0.00    0.46  H2O
  H2S(g)          -95.29   -103.23   -7.93  H2S
  O2(g)           -11.66    -14.75   -3.09  O2
  Sulfur          -71.77    -67.85    3.92  S

**For a gas, SI = log10(fugacity). Fugacity = pressure * phi / 1 atm.
  For ideal gases, phi = 1.

Reaction step 50.

Using solution 1.	Pure water
Using pure phase assemblage 1.	
Using temperature 1.	

-------------------------------Phase assemblage--------------------------------

                                                      Moles in assemblage
Phase               SI  log IAP  log K(T, P)   Initial       Final       Delta

Anhydrite         0.00    -4.89     -4.89    1.000e+00   1.990e+00   9.895e-01
Gypsum           -0.18    -4.89     -4.71    1.000e+00           0  -1.000e+00

-----------------------------Solution composition------------------------------

	Elements           Molality       Moles

	Ca                1.010e-02   1.046e-02
	S                 1.010e-02   1.046e-02

----------------------------Description of solution----------------------------

                                       pH  =   6.525      Charge balance
                                       pe  =   7.790      Adjusted to redox equilibrium
      Specific Conductance (µS/cm,  74°C)  = 3453
                          Density (g/cm³)  =   0.97676
                               Volume (L)  =   1.06214
                        Activity of water  =   1.000
                 Ionic strength (mol/kgw)  =   2.802e-02
                       Mass of water (kg)  =   1.036e+00
                 Total alkalinity (eq/kg)  =   1.174e-09
                         Temperature (°C)  =  74.00
                  Electrical balance (eq)  =  -1.217e-09
 Percent error, 100*(Cat-|An|)/(Cat+|An|)  =  -0.00
                               Iterations  =  17
                                  Total H  = 1.150124e+02
                                  Total O  = 5.754806e+01

----------------------------Distribution of species----------------------------

                                               Log       Log       Log    mole V
   Species          Molality    Activity  Molality  Activity     Gamma   cm³/mol

   OH-             7.861e-07   6.558e-07    -6.105    -6.183    -0.079     -4.16
   H+              3.448e-07   2.985e-07    -6.462    -6.525    -0.063      0.00
   H2O             5.551e+01   9.997e-01     1.744    -0.000     0.000     18.47
Ca            1.010e-02
   Ca+2            7.004e-03   3.596e-03    -2.155    -2.444    -0.289    -18.12
   CaSO4           3.092e-03   3.112e-03    -2.510    -2.507     0.003      8.58
   CaHSO4+         1.834e-08   1.540e-08    -7.737    -7.813    -0.076     (0)  
   CaOH+           2.381e-09   1.999e-09    -8.623    -8.699    -0.076     (0)  
H(0)          2.167e-32
   H2              1.083e-32   1.090e-32   -31.965   -31.962     0.003     28.58
O(0)          2.656e-15
   O2              1.328e-15   1.336e-15   -14.877   -14.874     0.003     32.95
S(-2)         0.000e+00
   HS-             0.000e+00   0.000e+00   -95.989   -96.068    -0.079     21.05
   H2S             0.000e+00   0.000e+00   -96.037   -96.035     0.003     37.28
   S-2             0.000e+00   0.000e+00  -100.915  -101.209    -0.294     (0)  
S(6)          1.010e-02
   SO4-2           7.004e-03   3.549e-03    -2.155    -2.450    -0.295     16.21
   CaSO4           3.092e-03   3.112e-03    -2.510    -2.507     0.003      8.58
   HSO4-           4.242e-07   3.561e-07    -6.372    -6.448    -0.076     41.54
   CaHSO4+         1.834e-08   1.540e-08    -7.737    -7.813    -0.076     (0)  

------------------------------Saturation indices-------------------------------

  Phase               SI** log IAP   log K(347 K,   1 atm)

  Anhydrite         0.00     -4.89   -4.89  CaSO4
  Gypsum           -0.18     -4.89   -4.71  CaSO4:2H2O
  H2(g)           -28.83    -31.96   -3.13  H2
  H2O(g)           -0.44     -0.00    0.44  H2O
  H2S(g)          -94.66   -102.59   -7.93  H2S
  O2(g)           -11.78    -14.87   -3.10  O2
  Sulfur          -71.30    -67.40    3.90  S

**For a gas, SI = log10(fugacity). Fugacity = pressure * phi / 1 atm.
  For ideal gases, phi = 1.

Reaction step 51.

Using solution 1.	Pure water
Using pure phase assemblage 1.	
Using temperature 1.	

-------------------------------Phase assemblage--------------------------------

                                                      Moles in assemblage
Phase               SI  log IAP  log K(T, P)   Initial       Final       Delta

Anhydrite         0.00    -4.91     -4.91    1.000e+00   1.990e+00   9.898e-01
Gypsum           -0.19    -4.91     -4.71    1.000e+00           0  -1.000e+00

-----------------------------Solution composition------------------------------

	Elements           Molality       Moles

	Ca                9.882e-03   1.024e-02
	S                 9.882e-03   1.024e-02

----------------------------Description of solution----------------------------

                                       pH  =   6.516      Charge balance
                                       pe  =   7.738      Adjusted to redox equilibrium
      Specific Conductance (µS/cm,  75°C)  = 3433
                          Density (g/cm³)  =   0.97614
                               Volume (L)  =   1.06279
                        Activity of water  =   1.000
                 Ionic strength (mol/kgw)  =   2.748e-02
                       Mass of water (kg)  =   1.036e+00
                 Total alkalinity (eq/kg)  =   1.174e-09
                         Temperature (°C)  =  75.00
                  Electrical balance (eq)  =  -1.217e-09
 Percent error, 100*(Cat-|An|)/(Cat+|An|)  =  -0.00
                               Iterations  =  17
                                  Total H  = 1.150124e+02
                                  Total O  = 5.754717e+01

----------------------------Distribution of species----------------------------

                                               Log       Log       Log    mole V
   Species          Molality    Activity  Molality  Activity     Gamma   cm³/mol

   OH-             8.067e-07   6.737e-07    -6.093    -6.172    -0.078     -4.20
   H+              3.515e-07   3.046e-07    -6.454    -6.516    -0.062      0.00
   H2O             5.551e+01   9.997e-01     1.744    -0.000     0.000     18.48
Ca            9.882e-03
   Ca+2            6.869e-03   3.539e-03    -2.163    -2.451    -0.288    -18.15
   CaSO4           3.012e-03   3.031e-03    -2.521    -2.518     0.003      8.59
   CaHSO4+         1.863e-08   1.565e-08    -7.730    -7.805    -0.076     (0)  
   CaOH+           2.295e-09   1.928e-09    -8.639    -8.715    -0.076     (0)  
H(0)          2.852e-32
   H2              1.426e-32   1.435e-32   -31.846   -31.843     0.003     28.58
O(0)          2.650e-15
   O2              1.325e-15   1.333e-15   -14.878   -14.875     0.003     32.99
S(-2)         0.000e+00
   HS-             0.000e+00   0.000e+00   -95.607   -95.685    -0.078     21.03
   H2S             0.000e+00   0.000e+00   -95.649   -95.647     0.003     37.28
   S-2             0.000e+00   0.000e+00  -100.521  -100.813    -0.293     (0)  
S(6)          9.882e-03
   SO4-2           6.869e-03   3.493e-03    -2.163    -2.457    -0.294     16.14
   CaSO4           3.012e-03   3.031e-03    -2.521    -2.518     0.003      8.59
   HSO4-           4.377e-07   3.678e-07    -6.359    -6.434    -0.076     41.53
   CaHSO4+         1.863e-08   1.565e-08    -7.730    -7.805    -0.076     (0)  

------------------------------Saturation indices-------------------------------

  Phase               SI** log IAP   log K(348 K,   1 atm)

  Anhydrite         0.00     -4.91   -4.91  CaSO4
  Gypsum           -0.19     -4.91   -4.71  CaSO4:2H2O
  H2(g)           -28.71    -31.84   -3.13  H2
  H2O(g)           -0.42     -0.00    0.42  H2O
  H2S(g)          -94.27   -102.20   -7.93  H2S
  O2(g)           -11.78    -14.88   -3.10  O2
  Sulfur          -71.02    -67.14    3.88  S

**For a gas, SI = log10(fugacity). Fugacity = pressure * phi / 1 atm.
  For ideal gases, phi = 1.

------------------
End of simulation.
------------------

------------------------------------
Reading input data for simulation 2.
------------------------------------

----------------------------------
End of Run after 0.030585 Seconds.
----------------------------------

